validation/13_bus_ref/gpk_13bus_per_phase_standalone/raw_backup/raw2/IEEE13_phase_C.raw
0, 100.000
GLM-derived 15-bus explicit Phase C (reference model)
Created 2026-03-25
      1, 3,    0.00000000,    0.00000000,    0.0000,    0.0000,   1,1.00000,   0.0000,'Meter1      ',2.4018,   1
      2, 1,    0.00000000,    0.00000000,    0.0000,    0.0000,   1,1.00000,   0.0000,'Node2       ',2.4018,   1
      3, 1,    0.00000000,    0.00000000,    0.0000,    0.0000,   1,1.00000,   0.0000,'Node3       ',2.4018,   1
      4, 1,    0.01000000,    0.00800000,    0.0000,    0.0000,   1,1.00000,   0.0000,'Load1       ',2.4018,   1
      5, 1,    0.01500000,   -0.00950000,    0.0000,    0.0000,   1,1.00000,   0.0000,'Load2       ',2.4018,   1
      6, 1,    0.00130000,   -0.00850000,    0.0000,    0.0000,   1,1.00000,   0.0000,'Node4       ',2.4018,   1
      7, 1,    0.09500000,   -0.00680000,    0.0000,    0.0000,   1,1.00000,   0.0000,'Node5       ',2.4018,   1
      8, 1,    0.00000000,    0.00000000,    0.0000,    0.0000,   1,1.00000,   0.0000,'Node6       ',2.4018,   1
      9, 1,    0.00000000,    0.00000000,    0.0000,    0.0000,   1,1.00000,   0.0000,'Node7       ',2.4018,   1
     10, 1,    0.00000000,    0.00000000,    0.0000,    0.0000,   1,1.00000,   0.0000,'Node8       ',2.4018,   1
     11, 1,    0.00810000,   -0.00665000,    0.0000,    0.0000,   1,1.00000,   0.0000,'Node9       ',2.4018,   1
     12, 1,    0.00000000,    0.00000000,    0.0000,    0.0000,   1,1.00000,   0.0000,'Node10      ',2.4018,   1
     13, 1,    0.00000000,    0.00000000,    0.0000,    0.0000,   1,1.00000,   0.0000,'Node11      ',2.4018,   1
     14, 1,    0.00000000,    0.00000000,    0.0000,    0.0000,   1,1.00000,   0.0000,'Node12      ',2.4018,   1
     15, 1,    0.00000000,    0.00000000,    0.0000,    0.0000,   1,1.00000,   0.0000,'Node13      ',2.4018,   1
0
      1,'1 ',     0.000,   0.000, 99990.000, -9999.000,1.00000,     0,   100.000,   0.00000,   1.00000,   0.00000,   0.00000,   1.00000,1, 100.0,     0.000,     0.000
0 / END OF GENERATOR DATA, BEGIN BRANCH DATA
      1,      2,'BL',   4.33377468,  17.33509871,  0.00000,   0.00,   0.00,   0.00,1.00000,  0.000, 0.00000, 0.00000, 0.00000, 0.00000, 1  / Meter1-Node2
      2,      3,'BL',   4.33377468,  17.33509871,  0.00000,   0.00,   0.00,   0.00,1.00000,  0.000, 0.00000, 0.00000, 0.00000, 0.00000, 1  / Node2-Node3
      2,      4,'BL',   0.41039533,   1.64158132,  0.00000,   0.00,   0.00,   0.00,1.00000,  0.000, 0.00000, 0.00000, 0.00000, 0.00000, 1  / Node2-Load1
      3,      5,'BL',   0.41039533,   1.64158132,  0.00000,   0.00,   0.00,   0.00,1.00000,  0.000, 0.00000, 0.00000, 0.00000, 0.00000, 1  / Node3-Load2
      3,      6,'BL',   4.33377468,  17.33509871,  0.00000,   0.00,   0.00,   0.00,1.00000,  0.000, 0.00000, 0.00000, 0.00000, 0.00000, 1  / Node3-Node4
      6,      8,'BL',   4.33377468,  17.33509871,  0.00000,   0.00,   0.00,   0.00,1.00000,  0.000, 0.00000, 0.00000, 0.00000, 0.00000, 1  / Node4-Node6
      6,      9,'BL',   4.33377468,  17.33509871,  0.00000,   0.00,   0.00,   0.00,1.00000,  0.000, 0.00000, 0.00000, 0.00000, 0.00000, 1  / Node4-Node7
      9,     10,'BL',   4.33377468,  17.33509871,  0.00000,   0.00,   0.00,   0.00,1.00000,  0.000, 0.00000, 0.00000, 0.00000, 0.00000, 1  / Node7-Node8
      9,     11,'BL',   4.33377468,  17.33509871,  0.00000,   0.00,   0.00,   0.00,1.00000,  0.000, 0.00000, 0.00000, 0.00000, 0.00000, 1  / Node7-Node9
      3,      7,'BL',   4.33377468,  17.33509871,  0.00000,   0.00,   0.00,   0.00,1.00000,  0.000, 0.00000, 0.00000, 0.00000, 0.00000, 1  / Node3-Node5
      7,     12,'BL',   4.33377468,  17.33509871,  0.00000,   0.00,   0.00,   0.00,1.00000,  0.000, 0.00000, 0.00000, 0.00000, 0.00000, 1  / Node5-Node10
      7,     13,'BL',   4.33377468,  17.33509871,  0.00000,   0.00,   0.00,   0.00,1.00000,  0.000, 0.00000, 0.00000, 0.00000, 0.00000, 1  / Node5-Node11
     13,     14,'BL',   4.33377468,  17.33509871,  0.00000,   0.00,   0.00,   0.00,1.00000,  0.000, 0.00000, 0.00000, 0.00000, 0.00000, 1  / Node11-Node12
     13,     15,'BL',   4.33377468,  17.33509871,  0.00000,   0.00,   0.00,   0.00,1.00000,  0.000, 0.00000, 0.00000, 0.00000, 0.00000, 1  / Node11-Node13
0 / END OF BRANCH DATA, BEGIN TRANSFORMER DATA
0 / END OF TRANSFORMER DATA, BEGIN TRANSFORMER ADJUSTMENT DATA
0 / END OF TRANSFORMER ADJUSTMENT DATA, BEGIN AREA DATA
   1,      0,     0.0,  0.000,'            '
0 / END OF AREA DATA, BEGIN TWO-TERMINAL DC DATA
0 / END OF TWO-TERMINAL DC DATA, BEGIN SWITCHED SHUNT DATA
0 / END OF SWITCHED SHUNT DATA, BEGIN IMPEDANCE CORRECTION DATA
0 / END OF IMPEDANCE CORRECTION DATA, BEGIN MULTI-TERMINAL DC DATA
0 / END OF MULTI-TERMINAL DC DATA, BEGIN MULTI-SECTION LINE DATA
0 / END OF MULTI-SECTION LINE DATA, BEGIN ZONE DATA
    1,'ZONE_1      '
0 / END OF ZONE DATA, BEGIN INTER-AREA TRANSFER DATA
    1,    1,'1 ',    0.00
0 / END OF INTER-AREA TRANSFER DATA, BEGIN OWNER DATA
    1,'OWNER_1     '
0 / END OF OWNER DATA, BEGIN FACTS DEVICE DATA
0
